          12

  C       0.726982     -1.259173     -0.000033
  C       1.455408      0.001138      0.000056
  C       0.727939      1.262474      0.000099
  C      -0.727894      1.262676      0.000035
  C      -1.456270      0.002259     -0.000065
  C      -0.728756     -1.258679     -0.000097
  H      -1.295477     -2.239629     -0.000172
  H       1.293508     -2.240248     -0.000057
  H       2.588310      0.000643      0.000075
  H       1.292639      2.245171      0.000174
  H      -1.293638      2.244189      0.000059
  H      -2.589155      0.002142     -0.000030
