12

  Si     -0.003424      1.566249      3.000080
  Si      4.020419      1.566252      2.377440
  Si      0.887989      7.831198      2.377451
  Si      3.129112      7.831216      3.000112
  Si     -0.026271      3.332462      1.237962
  Si     -0.026271     -0.199955      1.237937
  Si      0.009766      5.887442      1.208293
  Si      3.106202      9.597400      1.237929
  Si      3.106193      6.064993      1.237923
  Si      0.009760      9.774950      1.208231
  Si      3.142262      3.510018      1.208272
  Si      3.142268     -0.377512      1.208239
